           8
  -79.438310549999997     
 C    0.00011  -0.00001  -1.20001
 C   -0.00005  -0.00002   1.19999
 H   -0.20076   1.05139   1.42656
 H   -0.80819  -0.70173   1.42691
 H    1.01232  -0.34951   1.42395
 H    0.17243   1.05646  -1.42647
 H    0.82638  -0.67987  -1.42821
 H   -1.00292  -0.37633  -1.42245

