           8
  -79.796785854600003     
 C    0.00000   0.00000   0.00000
 C    0.00000   0.00000   1.52779
 H    1.01715   0.00000   1.92438
 H   -0.49719   0.89007   1.91907
 H   -0.52068  -0.87214   1.92679
 H    0.34789  -0.95583  -0.39654
 H   -1.00646   0.16283  -0.39123
 H    0.64142   0.78765  -0.39892

