           8
  -79.793864752399998     
 C    0.00000   0.00000   0.00000
 C    0.00000   0.00000   1.53628
 H    1.01418   0.00000   1.93868
 H   -0.48380   0.89649   1.92885
 H   -0.53065  -0.86048   1.94467
 H   -0.17611  -0.99880  -0.40233
 H   -0.79893   0.63207  -0.39250
 H    0.93956   0.37319  -0.40835

