#! 
memory 1 GB

molecule {

0 1
O    0.052864   0.042244   0.000000
H    0.052864  -0.926332   0.000000
H   -0.891857   0.255886   0.000000
}
set basis cc-pvdz
set scf_type pk
set reference rks
set mp2_type conv
_, wfn = frequency('B3LYP', return_wfn=True)
hess = wfn.hessian()
hess.name = 'Hessian'
hess.print_out()
