#! 
memory 1 GB

molecule {

0 2
C    0.000000   0.000000  -0.000001
H    0.000000   0.000000   1.091180
H    0.000000   0.944989  -0.545585
H    0.000000  -0.944989  -0.545585
}
set basis cc-pvdz
set scf_type pk
set reference uks
set mp2_type conv
_, wfn = frequency('B3LYP', return_wfn=True)
hess = wfn.hessian()
hess.name = 'Hessian'
hess.print_out()
