           8
  -79.796037347400002     
 C    0.00000   0.00000   0.00000
 C    0.00000   0.00000   1.52975
 H    1.01704   0.00000   1.92587
 H   -0.52914   0.86406   1.93416
 H   -0.48678  -0.89645   1.92002
 H    0.77912  -0.65376  -0.39603
 H   -0.96076  -0.32189  -0.40434
 H    0.20325   0.99963  -0.39027

