           8
  -79.438544640000003     
 C   -0.00012   0.00008  -1.19999
 C    0.00014   0.00008   1.20001
 H    0.36681  -1.00656   1.42237
 H    0.68630   0.82240   1.42384
 H   -1.05562   0.18320   1.42174
 H   -0.36757  -1.00628  -1.42244
 H   -0.68585   0.82283  -1.42370
 H    1.05563   0.18250  -1.42206
           8
  -79.438310549999997     
 C    0.00011  -0.00001  -1.20001
 C   -0.00005  -0.00002   1.19999
 H   -0.20076   1.05139   1.42656
 H   -0.80819  -0.70173   1.42691
 H    1.01232  -0.34951   1.42395
 H    0.17243   1.05646  -1.42647
 H    0.82638  -0.67987  -1.42821
 H   -1.00292  -0.37633  -1.42245
           8
  -79.438193339999998     
 C   -0.00001  -0.00001  -1.20000
 C    0.00001   0.00001   1.20000
 H    0.53809   0.92592   1.42423
 H   -1.07086   0.00296   1.42446
 H    0.53293  -0.92878   1.42458
 H    0.53166  -0.92954  -1.42454
 H   -1.07098   0.00433  -1.42396
 H    0.53911   0.92514  -1.42476
           8
  -79.438310540000003     
 C    0.00018   0.00009  -1.20000
 C    0.00019  -0.00009   1.20000
 H    0.68777   0.82095   1.42422
 H   -1.05455   0.18770   1.42249
 H    0.36463  -1.00682   1.42522
 H    0.68836  -0.82044  -1.42424
 H   -1.05443  -0.18850  -1.42239
 H    0.36385   1.00708  -1.42529
           8
  -79.438543170000003     
 C   -0.00012   0.00014  -1.20000
 C    0.00012   0.00017   1.20000
 H   -0.68934   0.82014   1.42250
 H   -0.36800  -1.00618   1.42141
 H    1.05525   0.18445   1.42338
 H    0.68855   0.82059  -1.42317
 H    0.36890  -1.00602  -1.42077
 H   -1.05545   0.18330  -1.42334
           8
  -79.438658779999997     
 C   -0.00000   0.00000  -1.20000
 C   -0.00001   0.00003   1.20000
 H   -0.48717   0.95428   1.42207
 H   -0.58268  -0.89910   1.42205
 H    1.07002  -0.05516   1.42182
 H    0.58389   0.89826  -1.42241
 H    0.48600  -0.95500  -1.42138
 H   -1.06990   0.05638  -1.42207
