 6
energy:  -41.0144710218, grid idxs: [0]
C   -0.589858   0.000095  -0.000070
H   -0.604319   0.747635   0.783126
H   -0.607604  -1.052052   0.254816
H   -0.600148   0.305544  -1.038850
H    2.305614  -0.001960  -0.000433
H    3.045607   0.000265   0.001764
 6
energy:  -41.0049578851, grid idxs: [1]
C    0.538112  -0.000280  -0.000654
H    0.558401   0.279281  -1.046590
H    0.567677  -1.045828   0.279488
H    0.582184   0.765272   0.763880
H   -2.027020   0.001950   0.004484
H   -2.909917   0.001007   0.002666
 6
energy:  -41.0053307023, grid idxs: [2]
C   -0.228237   0.000012   0.000042
H   -0.542934   0.965562   0.399854
H   -0.542628  -0.829456   0.635907
H   -0.541789  -0.136401  -1.036457
H    0.985530   0.000173   0.000218
H    2.011244   0.000048   0.000227
 6
energy:  -41.0090499270, grid idxs: [3]
C   -0.225699  -0.000055   0.000021
H   -0.560699   0.490725   0.916520
H   -0.559217  -1.039569  -0.034084
H   -0.558089   0.548927  -0.883894
H    0.931814   0.000379   0.001053
H    2.100385  -0.000131   0.000280
 6
energy:  -41.0119353782, grid idxs: [4]
C   -0.230600  -0.000001   0.000010
H   -0.575673   0.907019   0.502350
H   -0.575873  -0.888520   0.534257
H   -0.575749  -0.018383  -1.036647
H    0.899734  -0.000104  -0.000042
H    2.211163  -0.000009   0.000025
 6
energy:  -41.0141207993, grid idxs: [5]
C   -0.238907   0.000005   0.000008
H   -0.591160   0.993143   0.290295
H   -0.591329  -0.747950   0.714878
H   -0.591257  -0.245112  -1.005209
H    0.876450  -0.000112  -0.000026
H    2.330736   0.000001   0.000015
 6
energy:  -41.0157460479, grid idxs: [6]
C   -0.249029   0.000012   0.000017
H   -0.605351   0.988799   0.300575
H   -0.606494  -0.754345   0.705835
H   -0.606332  -0.233756  -1.006328
H    0.857603  -0.000771  -0.000214
H    2.454745   0.000004   0.000032
 6
energy:  -41.0169131067, grid idxs: [7]
C   -0.260197   0.000018   0.000041
H   -0.620973   0.973455   0.342764
H   -0.620334  -0.784026   0.671450
H   -0.619929  -0.189970  -1.014737
H    0.841209   0.000415   0.000202
H    2.581209   0.000016   0.000077