           8
  -79.687710126900001     
 C    0.00000   0.00000   0.00000
 C    0.00000   0.00000   2.40000
 H    1.06002   0.00000   2.61750
 H   -0.52995   0.91798   2.61773
 H   -0.52995  -0.91798   2.61773
 H    0.52995  -0.91798  -0.21773
 H   -1.06002   0.00000  -0.21750
 H    0.52995   0.91798  -0.21773

