           8
  -79.438544640000003     
 C   -0.00012   0.00008  -1.19999
 C    0.00014   0.00008   1.20001
 H    0.36681  -1.00656   1.42237
 H    0.68630   0.82240   1.42384
 H   -1.05562   0.18320   1.42174
 H   -0.36757  -1.00628  -1.42244
 H   -0.68585   0.82283  -1.42370
 H    1.05563   0.18250  -1.42206

