           8
  -79.447257640000004     
 C    0.00000   0.00061  -1.20013
 C   -0.00000   0.00045   1.19987
 H    0.92931   0.53385   1.42092
 H   -0.92671   0.53836   1.42094
 H   -0.00262  -1.07694   1.42226
 H    0.93146  -0.54180  -1.42001
 H   -0.93395  -0.53741  -1.42023
 H    0.00255   1.07133  -1.42084

