           8
  -79.797054081200002     
 C    0.00000   0.00000   0.00000
 C    0.00000   0.00000   1.52746
 H    1.01763   0.00000   1.92301
 H   -0.50880   0.88130   1.92301
 H   -0.50880  -0.88130   1.92301
 H    0.50881  -0.88129  -0.39555
 H   -1.01763  -0.00001  -0.39555
 H    0.50879   0.88130  -0.39555

