           8
  -79.794974636700005     
 C    0.00000   0.00000   0.00000
 C    0.00000   0.00000   1.53292
 H    1.01511   0.00000   1.93365
 H   -0.48285   0.89866   1.92243
 H   -0.53312  -0.86006   1.93958
 H    0.00000  -1.01511  -0.40072
 H   -0.89866   0.48285  -0.38951
 H    0.86006   0.53312  -0.40665

