           8
  -79.438310540000003     
 C    0.00018   0.00009  -1.20000
 C    0.00019  -0.00009   1.20000
 H    0.68777   0.82095   1.42422
 H   -1.05455   0.18770   1.42249
 H    0.36463  -1.00682   1.42522
 H    0.68836  -0.82044  -1.42424
 H   -1.05443  -0.18850  -1.42239
 H    0.36385   1.00708  -1.42529

