           8
  -79.438543170000003     
 C   -0.00012   0.00014  -1.20000
 C    0.00012   0.00017   1.20000
 H   -0.68934   0.82014   1.42250
 H   -0.36800  -1.00618   1.42141
 H    1.05525   0.18445   1.42338
 H    0.68855   0.82059  -1.42317
 H    0.36890  -1.00602  -1.42077
 H   -1.05545   0.18330  -1.42334

