           8
  -79.796785812300001     
 C    0.00000   0.00000   0.00000
 C    0.00000   0.00000   1.52770
 H    1.01771   0.00000   1.92266
 H   -0.52010   0.87223   1.92756
 H   -0.49684  -0.88996   1.91970
 H    0.65419  -0.77963  -0.39490
 H   -1.00250  -0.16230  -0.39978
 H    0.36235   0.95271  -0.39194

