           8
  -79.794977512900005     
 C    0.00000   0.00000   0.00000
 C    0.00000   0.00000   1.53288
 H    1.01588   0.00000   1.93129
 H   -0.53308   0.85962   1.94060
 H   -0.48185  -0.89878   1.92366
 H    0.87978  -0.50794  -0.39841
 H   -0.89145  -0.47796  -0.40771
 H    0.03203   1.01929  -0.39080

