           8
  -79.792698696900004     
 C    0.00000   0.00000   0.00000
 C    0.00000   0.00000   1.53981
 H    1.01351   0.00000   1.94300
 H   -0.50653   0.87770   1.94337
 H   -0.50661  -0.87770   1.94313
 H   -0.50674  -0.87770  -0.40326
 H   -0.50676   0.87757  -0.40355
 H    1.01345  -0.00012  -0.40324

